Circuit: * C:\Users\Manuel Mollon\Dropbox\ELECTRO 2\electro2-TP1\foldback.asc

Direct Newton iteration for .op point succeeded.
.step r=10000
.step r=20000
.step r=30000
.step r=40000
.step r=50000
.step r=60000
.step r=70000
.step r=80000
.step r=90000
.step r=100000
.step r=110000
.step r=120000
.step r=130000
.step r=140000
.step r=150000
.step r=160000
.step r=170000
.step r=180000
.step r=190000
.step r=200000
.step r=210000
.step r=220000
.step r=230000
.step r=240000
.step r=250000
.step r=260000
.step r=270000
.step r=280000
.step r=290000
.step r=300000
.step r=310000
.step r=320000
.step r=330000
.step r=340000
.step r=350000
.step r=360000
.step r=370000
.step r=380000
.step r=390000
.step r=400000
.step r=410000
.step r=420000
.step r=430000
.step r=440000
.step r=450000
.step r=460000
.step r=470000
.step r=480000
.step r=490000
.step r=500000
.step r=510000
.step r=520000
.step r=530000
.step r=540000
.step r=550000
.step r=560000
.step r=570000
.step r=580000
.step r=590000
.step r=600000
.step r=610000
.step r=620000
.step r=630000
.step r=640000
.step r=650000
.step r=660000
.step r=670000
.step r=680000
.step r=690000
.step r=700000
.step r=710000
.step r=720000
.step r=730000
.step r=740000
.step r=750000
.step r=760000
.step r=770000
.step r=780000
.step r=790000
.step r=800000
.step r=810000
.step r=820000
.step r=830000
.step r=840000
.step r=850000
.step r=860000
.step r=870000
.step r=880000
.step r=890000
.step r=900000
.step r=910000
.step r=920000
.step r=930000
.step r=940000
.step r=950000
.step r=960000
.step r=970000
.step r=980000
.step r=990000
.step r=1e+006

Date: Wed Apr 24 23:21:48 2019
Total elapsed time: 5.435 seconds.

tnom = 27
temp = 27
method = modified trap
totiter = 2097
traniter = 2082
tranpoints = 1042
accept = 1042
rejected = 0
matrix size = 7
fillins = 0
Matrix Compiler1: 422 bytes object code size  0.7/0.1/[0.1]
Matrix Compiler2:      46 opcodes  0.1/[0.1]/0.1

